/*--------------------------------*- C++ -*----------------------------------*\
  =========                 |
  \\      /  F ield         | OpenFOAM: The Open Source CFD Toolbox
   \\    /   O peration     | Website:  https://openfoam.org
    \\  /    A nd           | Version:  10
     \\/     M anipulation  |
\*---------------------------------------------------------------------------*/
FoamFile
{
    format      ascii;
    class       polyBoundaryMesh;
    location    "constant/polyMesh";
    object      boundary;
}
// * * * * * * * * * * * * * * * * * * * * * * * * * * * * * * * * * * * * * //

3
(
    inlet
    {
        type            patch;
        nFaces          2244;
        startFace       590852;
    }
    outlet
    {
        type            patch;
        nFaces          2244;
        startFace       593096;
    }
    tankwall
    {
        type            wall;
        inGroups        List<word> 1(wall);
        nFaces          12104;
        startFace       595340;
    }
)

// ************************************************************************* //
